<edges>
  <edge id="nl1_nm1" from="nl1" to="nm1" type="a"/>
  <edge id="nl1_nl2" from="nl1" to="nl2" type="a"/>
  <edge id="nl2_nl1" from="nl2" to="nl1" type="a"/>
  <edge id="nl2_nm2" from="nl2" to="nm2" type="a"/>
  <edge id="nl2_nl3" from="nl2" to="nl3" type="a"/>
  <edge id="nl3_nm3" from="nl3" to="nm3" type="a"/>
  <edge id="nl3_nl2" from="nl3" to="nl2" type="a"/>
  <edge id="nm1_nl1" from="nm1" to="nl1" type="a"/>
  <edge id="nm1_nm2" from="nm1" to="nm2" type="a"/>
  <edge id="nm1_nr1" from="nm1" to="nr1" type="a"/>
  <edge id="nm2_nl2" from="nm2" to="nl2" type="a"/>
  <edge id="nm2_nm1" from="nm2" to="nm1" type="a"/>
  <edge id="nm2_nr2" from="nm2" to="nr2" type="a"/>
  <edge id="nm2_nm3" from="nm2" to="nm3" type="a"/>
  <edge id="nm3_nl3" from="nm3" to="nl3" type="a"/>
  <edge id="nm3_nm2" from="nm3" to="nm2" type="a"/>
  <edge id="nm3_nr3" from="nm3" to="nr3" type="a"/>
  <edge id="nr1_nm1" from="nr1" to="nm1" type="a"/>
  <edge id="nr1_nr2" from="nr1" to="nr2" type="a"/>
  <edge id="nr2_nr1" from="nr2" to="nr1" type="a"/>
  <edge id="nr2_nm2" from="nr2" to="nm2" type="a"/>
  <edge id="nr2_nr3" from="nr2" to="nr3" type="a"/>
  <edge id="nr3_nr2" from="nr3" to="nr2" type="a"/>
  <edge id="nr3_nm3" from="nr3" to="nm3" type="a"/>
  <edge id="nl10_nl1" from="nl10" to="nl1" type="a"/>
  <edge id="nl1_nl10" from="nl1" to="nl10" type="a"/>
  <edge id="nl11_nl1" from="nl11" to="nl1" type="a"/>
  <edge id="nl1_nl11" from="nl1" to="nl11" type="a"/>
  <edge id="nl20_nl2" from="nl20" to="nl2" type="a"/>
  <edge id="nl2_nl20" from="nl2" to="nl20" type="a"/>
  <edge id="nl30_nl3" from="nl30" to="nl3" type="a"/>
  <edge id="nl3_nl30" from="nl3" to="nl30" type="a"/>
  <edge id="nl31_nl3" from="nl31" to="nl3" type="a"/>
  <edge id="nl3_nl31" from="nl3" to="nl31" type="a"/>
  <edge id="nm11_nm1" from="nm11" to="nm1" type="a"/>
  <edge id="nm1_nm11" from="nm1" to="nm11" type="a"/>
  <edge id="nm31_nm3" from="nm31" to="nm3" type="a"/>
  <edge id="nm3_nm31" from="nm3" to="nm31" type="a"/>
  <edge id="nr10_nr1" from="nr10" to="nr1" type="a"/>
  <edge id="nr1_nr10" from="nr1" to="nr10" type="a"/>
  <edge id="nr11_nr1" from="nr11" to="nr1" type="a"/>
  <edge id="nr1_nr11" from="nr1" to="nr11" type="a"/>
  <edge id="nr20_nr2" from="nr20" to="nr2" type="a"/>
  <edge id="nr2_nr20" from="nr2" to="nr20" type="a"/>
  <edge id="nr30_nr3" from="nr30" to="nr3" type="a"/>
  <edge id="nr3_nr30" from="nr3" to="nr30" type="a"/>
  <edge id="nr31_nr3" from="nr31" to="nr3" type="a"/>
  <edge id="nr3_nr31" from="nr3" to="nr31" type="a"/>
</edges>
