<configuration>
  <input>
    <net-file value="exp.net.xml"/>
    <route-files value="exp.new.rou.xml"/>
  </input>
  <time>
    <begin value="0"/>
    <end value="100000"/>
  </time>
</configuration>