<?xml version="1.0" encoding="UTF-8"?>

<!-- generated on 05/29/20 18:45:10 by Eclipse SUMO netedit Version 1.3.1
<configuration xmlns:xsi="http://www.w3.org/2001/XMLSchema-instance" xsi:noNamespaceSchemaLocation="http://sumo.dlr.de/xsd/netconvertConfiguration.xsd">

    <input>
        <sumo-net-file value="D:\zbb99\Desktop\Multi_COMA_2\exp.net.xml"/>
    </input>

    <output>
        <output-file value="D:\zbb99\Desktop\Multi_COMA_2\exp.net.xml"/>
    </output>

    <processing>
        <geometry.max-grade.fix value="false"/>
        <offset.disable-normalization value="true"/>
        <opposites.guess.fix-lengths value="true"/>
        <lefthand value="false"/>
    </processing>

    <junctions>
        <no-turnarounds value="true"/>
        <junctions.corner-detail value="5"/>
        <junctions.limit-turn-speed value="5.5"/>
        <rectangular-lane-cut value="false"/>
    </junctions>

    <pedestrian>
        <walkingareas value="false"/>
    </pedestrian>

</configuration>
-->

<net version="1.3" junctionCornerDetail="5" limitTurnSpeed="5.50" xmlns:xsi="http://www.w3.org/2001/XMLSchema-instance" xsi:noNamespaceSchemaLocation="http://sumo.dlr.de/xsd/net_file.xsd">

    <location netOffset="325.00,325.00" convBoundary="-300.00,-275.00,925.00,925.00" origBoundary="-325.00,-325.00,325.00,325.00" projParameter="!"/>

    <type id="a" numLanes="1" speed="20.00"/>

    <edge id=":nl1_0" function="internal">
        <lane id=":nl1_0_0" index="0" speed="6.51" length="9.03" shape="17.00,638.60 16.65,636.15 15.60,634.40 13.85,633.35 11.40,633.00"/>
    </edge>
    <edge id=":nl1_1" function="internal">
        <lane id=":nl1_1_0" index="0" speed="20.00" length="27.20" shape="17.00,638.60 17.00,611.40"/>
        <lane id=":nl1_1_1" index="1" speed="20.00" length="27.20" shape="20.20,638.60 20.20,611.40"/>
    </edge>
    <edge id=":nl1_3" function="internal">
        <lane id=":nl1_3_0" index="0" speed="10.36" length="24.51" shape="23.40,638.60 24.35,631.95 27.20,627.20 31.95,624.35 38.60,623.40"/>
    </edge>
    <edge id=":nl1_4" function="internal">
        <lane id=":nl1_4_0" index="0" speed="6.51" length="9.03" shape="38.60,633.00 36.15,633.35 34.40,634.40 33.35,636.15 33.00,638.60"/>
    </edge>
    <edge id=":nl1_5" function="internal">
        <lane id=":nl1_5_0" index="0" speed="20.00" length="27.20" shape="38.60,633.00 11.40,633.00"/>
        <lane id=":nl1_5_1" index="1" speed="20.00" length="27.20" shape="38.60,629.80 11.40,629.80"/>
    </edge>
    <edge id=":nl1_7" function="internal">
        <lane id=":nl1_7_0" index="0" speed="10.36" length="24.51" shape="38.60,626.60 31.95,625.65 27.20,622.80 24.35,618.05 23.40,611.40"/>
    </edge>
    <edge id=":nl1_8" function="internal">
        <lane id=":nl1_8_0" index="0" speed="6.51" length="9.03" shape="33.00,611.40 33.35,613.85 34.40,615.60 36.15,616.65 38.60,617.00"/>
    </edge>
    <edge id=":nl1_9" function="internal">
        <lane id=":nl1_9_0" index="0" speed="20.00" length="27.20" shape="33.00,611.40 33.00,638.60"/>
        <lane id=":nl1_9_1" index="1" speed="20.00" length="27.20" shape="29.80,611.40 29.80,638.60"/>
    </edge>
    <edge id=":nl1_11" function="internal">
        <lane id=":nl1_11_0" index="0" speed="10.36" length="24.51" shape="26.60,611.40 25.65,618.05 22.80,622.80 18.05,625.65 11.40,626.60"/>
    </edge>
    <edge id=":nl1_12" function="internal">
        <lane id=":nl1_12_0" index="0" speed="6.51" length="9.03" shape="11.40,617.00 13.85,616.65 15.60,615.60 16.65,613.85 17.00,611.40"/>
    </edge>
    <edge id=":nl1_13" function="internal">
        <lane id=":nl1_13_0" index="0" speed="20.00" length="27.20" shape="11.40,617.00 38.60,617.00"/>
        <lane id=":nl1_13_1" index="1" speed="20.00" length="27.20" shape="11.40,620.20 38.60,620.20"/>
    </edge>
    <edge id=":nl1_15" function="internal">
        <lane id=":nl1_15_0" index="0" speed="10.36" length="24.51" shape="11.40,623.40 18.05,624.35 22.80,627.20 25.65,631.95 26.60,638.60"/>
    </edge>
    <edge id=":nl10_0" function="internal">
        <lane id=":nl10_0_0" index="0" speed="3.65" length="4.67" shape="-300.00,626.60 -301.20,625.80 -301.60,625.00 -301.20,624.20 -300.00,623.40"/>
    </edge>
    <edge id=":nl11_0" function="internal">
        <lane id=":nl11_0_0" index="0" speed="3.65" length="4.67" shape="26.60,925.00 25.80,926.20 25.00,926.60 24.20,926.20 23.40,925.00"/>
    </edge>
    <edge id=":nl2_0" function="internal">
        <lane id=":nl2_0_0" index="0" speed="6.51" length="9.03" shape="17.00,338.60 16.65,336.15 15.60,334.40 13.85,333.35 11.40,333.00"/>
    </edge>
    <edge id=":nl2_1" function="internal">
        <lane id=":nl2_1_0" index="0" speed="20.00" length="27.20" shape="17.00,338.60 17.00,311.40"/>
        <lane id=":nl2_1_1" index="1" speed="20.00" length="27.20" shape="20.20,338.60 20.20,311.40"/>
    </edge>
    <edge id=":nl2_3" function="internal">
        <lane id=":nl2_3_0" index="0" speed="10.36" length="24.51" shape="23.40,338.60 24.35,331.95 27.20,327.20 31.95,324.35 38.60,323.40"/>
    </edge>
    <edge id=":nl2_4" function="internal">
        <lane id=":nl2_4_0" index="0" speed="6.51" length="9.03" shape="38.60,333.00 36.15,333.35 34.40,334.40 33.35,336.15 33.00,338.60"/>
    </edge>
    <edge id=":nl2_5" function="internal">
        <lane id=":nl2_5_0" index="0" speed="20.00" length="27.20" shape="38.60,333.00 11.40,333.00"/>
        <lane id=":nl2_5_1" index="1" speed="20.00" length="27.20" shape="38.60,329.80 11.40,329.80"/>
    </edge>
    <edge id=":nl2_7" function="internal">
        <lane id=":nl2_7_0" index="0" speed="10.36" length="24.51" shape="38.60,326.60 31.95,325.65 27.20,322.80 24.35,318.05 23.40,311.40"/>
    </edge>
    <edge id=":nl2_8" function="internal">
        <lane id=":nl2_8_0" index="0" speed="6.51" length="9.03" shape="33.00,311.40 33.35,313.85 34.40,315.60 36.15,316.65 38.60,317.00"/>
    </edge>
    <edge id=":nl2_9" function="internal">
        <lane id=":nl2_9_0" index="0" speed="20.00" length="27.20" shape="33.00,311.40 33.00,338.60"/>
        <lane id=":nl2_9_1" index="1" speed="20.00" length="27.20" shape="29.80,311.40 29.80,338.60"/>
    </edge>
    <edge id=":nl2_11" function="internal">
        <lane id=":nl2_11_0" index="0" speed="10.36" length="24.51" shape="26.60,311.40 25.65,318.05 22.80,322.80 18.05,325.65 11.40,326.60"/>
    </edge>
    <edge id=":nl2_12" function="internal">
        <lane id=":nl2_12_0" index="0" speed="6.51" length="9.03" shape="11.40,317.00 13.85,316.65 15.60,315.60 16.65,313.85 17.00,311.40"/>
    </edge>
    <edge id=":nl2_13" function="internal">
        <lane id=":nl2_13_0" index="0" speed="20.00" length="27.20" shape="11.40,317.00 38.60,317.00"/>
        <lane id=":nl2_13_1" index="1" speed="20.00" length="27.20" shape="11.40,320.20 38.60,320.20"/>
    </edge>
    <edge id=":nl2_15" function="internal">
        <lane id=":nl2_15_0" index="0" speed="10.36" length="24.51" shape="11.40,323.40 18.05,324.35 22.80,327.20 25.65,331.95 26.60,338.60"/>
    </edge>
    <edge id=":nl20_0" function="internal">
        <lane id=":nl20_0_0" index="0" speed="3.65" length="4.67" shape="-300.00,326.60 -301.20,325.80 -301.60,325.00 -301.20,324.20 -300.00,323.40"/>
    </edge>
    <edge id=":nl3_0" function="internal">
        <lane id=":nl3_0_0" index="0" speed="6.51" length="9.03" shape="17.00,38.60 16.65,36.15 15.60,34.40 13.85,33.35 11.40,33.00"/>
    </edge>
    <edge id=":nl3_1" function="internal">
        <lane id=":nl3_1_0" index="0" speed="20.00" length="27.20" shape="17.00,38.60 17.00,11.40"/>
        <lane id=":nl3_1_1" index="1" speed="20.00" length="27.20" shape="20.20,38.60 20.20,11.40"/>
    </edge>
    <edge id=":nl3_3" function="internal">
        <lane id=":nl3_3_0" index="0" speed="10.36" length="24.51" shape="23.40,38.60 24.35,31.95 27.20,27.20 31.95,24.35 38.60,23.40"/>
    </edge>
    <edge id=":nl3_4" function="internal">
        <lane id=":nl3_4_0" index="0" speed="6.51" length="9.03" shape="38.60,33.00 36.15,33.35 34.40,34.40 33.35,36.15 33.00,38.60"/>
    </edge>
    <edge id=":nl3_5" function="internal">
        <lane id=":nl3_5_0" index="0" speed="20.00" length="27.20" shape="38.60,33.00 11.40,33.00"/>
        <lane id=":nl3_5_1" index="1" speed="20.00" length="27.20" shape="38.60,29.80 11.40,29.80"/>
    </edge>
    <edge id=":nl3_7" function="internal">
        <lane id=":nl3_7_0" index="0" speed="10.36" length="24.51" shape="38.60,26.60 31.95,25.65 27.20,22.80 24.35,18.05 23.40,11.40"/>
    </edge>
    <edge id=":nl3_8" function="internal">
        <lane id=":nl3_8_0" index="0" speed="6.51" length="9.03" shape="33.00,11.40 33.35,13.85 34.40,15.60 36.15,16.65 38.60,17.00"/>
    </edge>
    <edge id=":nl3_9" function="internal">
        <lane id=":nl3_9_0" index="0" speed="20.00" length="27.20" shape="33.00,11.40 33.00,38.60"/>
        <lane id=":nl3_9_1" index="1" speed="20.00" length="27.20" shape="29.80,11.40 29.80,38.60"/>
    </edge>
    <edge id=":nl3_11" function="internal">
        <lane id=":nl3_11_0" index="0" speed="10.36" length="24.51" shape="26.60,11.40 25.65,18.05 22.80,22.80 18.05,25.65 11.40,26.60"/>
    </edge>
    <edge id=":nl3_12" function="internal">
        <lane id=":nl3_12_0" index="0" speed="6.51" length="9.03" shape="11.40,17.00 13.85,16.65 15.60,15.60 16.65,13.85 17.00,11.40"/>
    </edge>
    <edge id=":nl3_13" function="internal">
        <lane id=":nl3_13_0" index="0" speed="20.00" length="27.20" shape="11.40,17.00 38.60,17.00"/>
        <lane id=":nl3_13_1" index="1" speed="20.00" length="27.20" shape="11.40,20.20 38.60,20.20"/>
    </edge>
    <edge id=":nl3_15" function="internal">
        <lane id=":nl3_15_0" index="0" speed="10.36" length="24.51" shape="11.40,23.40 18.05,24.35 22.80,27.20 25.65,31.95 26.60,38.60"/>
    </edge>
    <edge id=":nl30_0" function="internal">
        <lane id=":nl30_0_0" index="0" speed="3.65" length="4.67" shape="-300.00,26.60 -301.20,25.80 -301.60,25.00 -301.20,24.20 -300.00,23.40"/>
    </edge>
    <edge id=":nl31_0" function="internal">
        <lane id=":nl31_0_0" index="0" speed="3.65" length="4.67" shape="23.40,-275.00 24.20,-276.20 25.00,-276.60 25.80,-276.20 26.60,-275.00"/>
    </edge>
    <edge id=":nm1_0" function="internal">
        <lane id=":nm1_0_0" index="0" speed="6.51" length="9.03" shape="317.00,638.60 316.65,636.15 315.60,634.40 313.85,633.35 311.40,633.00"/>
    </edge>
    <edge id=":nm1_1" function="internal">
        <lane id=":nm1_1_0" index="0" speed="20.00" length="27.20" shape="317.00,638.60 317.00,611.40"/>
        <lane id=":nm1_1_1" index="1" speed="20.00" length="27.20" shape="320.20,638.60 320.20,611.40"/>
    </edge>
    <edge id=":nm1_3" function="internal">
        <lane id=":nm1_3_0" index="0" speed="10.36" length="24.51" shape="323.40,638.60 324.35,631.95 327.20,627.20 331.95,624.35 338.60,623.40"/>
    </edge>
    <edge id=":nm1_4" function="internal">
        <lane id=":nm1_4_0" index="0" speed="6.51" length="9.03" shape="338.60,633.00 336.15,633.35 334.40,634.40 333.35,636.15 333.00,638.60"/>
    </edge>
    <edge id=":nm1_5" function="internal">
        <lane id=":nm1_5_0" index="0" speed="20.00" length="27.20" shape="338.60,633.00 311.40,633.00"/>
        <lane id=":nm1_5_1" index="1" speed="20.00" length="27.20" shape="338.60,629.80 311.40,629.80"/>
    </edge>
    <edge id=":nm1_7" function="internal">
        <lane id=":nm1_7_0" index="0" speed="10.36" length="24.51" shape="338.60,626.60 331.95,625.65 327.20,622.80 324.35,618.05 323.40,611.40"/>
    </edge>
    <edge id=":nm1_8" function="internal">
        <lane id=":nm1_8_0" index="0" speed="6.51" length="9.03" shape="333.00,611.40 333.35,613.85 334.40,615.60 336.15,616.65 338.60,617.00"/>
    </edge>
    <edge id=":nm1_9" function="internal">
        <lane id=":nm1_9_0" index="0" speed="20.00" length="27.20" shape="333.00,611.40 333.00,638.60"/>
        <lane id=":nm1_9_1" index="1" speed="20.00" length="27.20" shape="329.80,611.40 329.80,638.60"/>
    </edge>
    <edge id=":nm1_11" function="internal">
        <lane id=":nm1_11_0" index="0" speed="10.36" length="24.51" shape="326.60,611.40 325.65,618.05 322.80,622.80 318.05,625.65 311.40,626.60"/>
    </edge>
    <edge id=":nm1_12" function="internal">
        <lane id=":nm1_12_0" index="0" speed="6.51" length="9.03" shape="311.40,617.00 313.85,616.65 315.60,615.60 316.65,613.85 317.00,611.40"/>
    </edge>
    <edge id=":nm1_13" function="internal">
        <lane id=":nm1_13_0" index="0" speed="20.00" length="27.20" shape="311.40,617.00 338.60,617.00"/>
        <lane id=":nm1_13_1" index="1" speed="20.00" length="27.20" shape="311.40,620.20 338.60,620.20"/>
    </edge>
    <edge id=":nm1_15" function="internal">
        <lane id=":nm1_15_0" index="0" speed="10.36" length="24.51" shape="311.40,623.40 318.05,624.35 322.80,627.20 325.65,631.95 326.60,638.60"/>
    </edge>
    <edge id=":nm11_0" function="internal">
        <lane id=":nm11_0_0" index="0" speed="3.65" length="4.67" shape="326.60,925.00 325.80,926.20 325.00,926.60 324.20,926.20 323.40,925.00"/>
    </edge>
    <edge id=":nm2_0" function="internal">
        <lane id=":nm2_0_0" index="0" speed="6.51" length="9.03" shape="317.00,338.60 316.65,336.15 315.60,334.40 313.85,333.35 311.40,333.00"/>
    </edge>
    <edge id=":nm2_1" function="internal">
        <lane id=":nm2_1_0" index="0" speed="20.00" length="27.20" shape="317.00,338.60 317.00,311.40"/>
        <lane id=":nm2_1_1" index="1" speed="20.00" length="27.20" shape="320.20,338.60 320.20,311.40"/>
    </edge>
    <edge id=":nm2_3" function="internal">
        <lane id=":nm2_3_0" index="0" speed="10.36" length="24.51" shape="323.40,338.60 324.35,331.95 327.20,327.20 331.95,324.35 338.60,323.40"/>
    </edge>
    <edge id=":nm2_4" function="internal">
        <lane id=":nm2_4_0" index="0" speed="6.51" length="9.03" shape="338.60,333.00 336.15,333.35 334.40,334.40 333.35,336.15 333.00,338.60"/>
    </edge>
    <edge id=":nm2_5" function="internal">
        <lane id=":nm2_5_0" index="0" speed="20.00" length="27.20" shape="338.60,333.00 311.40,333.00"/>
        <lane id=":nm2_5_1" index="1" speed="20.00" length="27.20" shape="338.60,329.80 311.40,329.80"/>
    </edge>
    <edge id=":nm2_7" function="internal">
        <lane id=":nm2_7_0" index="0" speed="10.36" length="24.51" shape="338.60,326.60 331.95,325.65 327.20,322.80 324.35,318.05 323.40,311.40"/>
    </edge>
    <edge id=":nm2_8" function="internal">
        <lane id=":nm2_8_0" index="0" speed="6.51" length="9.03" shape="333.00,311.40 333.35,313.85 334.40,315.60 336.15,316.65 338.60,317.00"/>
    </edge>
    <edge id=":nm2_9" function="internal">
        <lane id=":nm2_9_0" index="0" speed="20.00" length="27.20" shape="333.00,311.40 333.00,338.60"/>
        <lane id=":nm2_9_1" index="1" speed="20.00" length="27.20" shape="329.80,311.40 329.80,338.60"/>
    </edge>
    <edge id=":nm2_11" function="internal">
        <lane id=":nm2_11_0" index="0" speed="10.36" length="24.51" shape="326.60,311.40 325.65,318.05 322.80,322.80 318.05,325.65 311.40,326.60"/>
    </edge>
    <edge id=":nm2_12" function="internal">
        <lane id=":nm2_12_0" index="0" speed="6.51" length="9.03" shape="311.40,317.00 313.85,316.65 315.60,315.60 316.65,313.85 317.00,311.40"/>
    </edge>
    <edge id=":nm2_13" function="internal">
        <lane id=":nm2_13_0" index="0" speed="20.00" length="27.20" shape="311.40,317.00 338.60,317.00"/>
        <lane id=":nm2_13_1" index="1" speed="20.00" length="27.20" shape="311.40,320.20 338.60,320.20"/>
    </edge>
    <edge id=":nm2_15" function="internal">
        <lane id=":nm2_15_0" index="0" speed="10.36" length="24.51" shape="311.40,323.40 318.05,324.35 322.80,327.20 325.65,331.95 326.60,338.60"/>
    </edge>
    <edge id=":nm3_0" function="internal">
        <lane id=":nm3_0_0" index="0" speed="6.51" length="9.03" shape="317.00,38.60 316.65,36.15 315.60,34.40 313.85,33.35 311.40,33.00"/>
    </edge>
    <edge id=":nm3_1" function="internal">
        <lane id=":nm3_1_0" index="0" speed="20.00" length="27.20" shape="317.00,38.60 317.00,11.40"/>
        <lane id=":nm3_1_1" index="1" speed="20.00" length="27.20" shape="320.20,38.60 320.20,11.40"/>
    </edge>
    <edge id=":nm3_3" function="internal">
        <lane id=":nm3_3_0" index="0" speed="10.36" length="24.51" shape="323.40,38.60 324.35,31.95 327.20,27.20 331.95,24.35 338.60,23.40"/>
    </edge>
    <edge id=":nm3_4" function="internal">
        <lane id=":nm3_4_0" index="0" speed="6.51" length="9.03" shape="338.60,33.00 336.15,33.35 334.40,34.40 333.35,36.15 333.00,38.60"/>
    </edge>
    <edge id=":nm3_5" function="internal">
        <lane id=":nm3_5_0" index="0" speed="20.00" length="27.20" shape="338.60,33.00 311.40,33.00"/>
        <lane id=":nm3_5_1" index="1" speed="20.00" length="27.20" shape="338.60,29.80 311.40,29.80"/>
    </edge>
    <edge id=":nm3_7" function="internal">
        <lane id=":nm3_7_0" index="0" speed="10.36" length="24.51" shape="338.60,26.60 331.95,25.65 327.20,22.80 324.35,18.05 323.40,11.40"/>
    </edge>
    <edge id=":nm3_8" function="internal">
        <lane id=":nm3_8_0" index="0" speed="6.51" length="9.03" shape="333.00,11.40 333.35,13.85 334.40,15.60 336.15,16.65 338.60,17.00"/>
    </edge>
    <edge id=":nm3_9" function="internal">
        <lane id=":nm3_9_0" index="0" speed="20.00" length="27.20" shape="333.00,11.40 333.00,38.60"/>
        <lane id=":nm3_9_1" index="1" speed="20.00" length="27.20" shape="329.80,11.40 329.80,38.60"/>
    </edge>
    <edge id=":nm3_11" function="internal">
        <lane id=":nm3_11_0" index="0" speed="10.36" length="24.51" shape="326.60,11.40 325.65,18.05 322.80,22.80 318.05,25.65 311.40,26.60"/>
    </edge>
    <edge id=":nm3_12" function="internal">
        <lane id=":nm3_12_0" index="0" speed="6.51" length="9.03" shape="311.40,17.00 313.85,16.65 315.60,15.60 316.65,13.85 317.00,11.40"/>
    </edge>
    <edge id=":nm3_13" function="internal">
        <lane id=":nm3_13_0" index="0" speed="20.00" length="27.20" shape="311.40,17.00 338.60,17.00"/>
        <lane id=":nm3_13_1" index="1" speed="20.00" length="27.20" shape="311.40,20.20 338.60,20.20"/>
    </edge>
    <edge id=":nm3_15" function="internal">
        <lane id=":nm3_15_0" index="0" speed="10.36" length="24.51" shape="311.40,23.40 318.05,24.35 322.80,27.20 325.65,31.95 326.60,38.60"/>
    </edge>
    <edge id=":nm31_0" function="internal">
        <lane id=":nm31_0_0" index="0" speed="3.65" length="4.67" shape="323.40,-275.00 324.20,-276.20 325.00,-276.60 325.80,-276.20 326.60,-275.00"/>
    </edge>
    <edge id=":nr1_0" function="internal">
        <lane id=":nr1_0_0" index="0" speed="6.51" length="9.03" shape="617.00,638.60 616.65,636.15 615.60,634.40 613.85,633.35 611.40,633.00"/>
    </edge>
    <edge id=":nr1_1" function="internal">
        <lane id=":nr1_1_0" index="0" speed="20.00" length="27.20" shape="617.00,638.60 617.00,611.40"/>
        <lane id=":nr1_1_1" index="1" speed="20.00" length="27.20" shape="620.20,638.60 620.20,611.40"/>
    </edge>
    <edge id=":nr1_3" function="internal">
        <lane id=":nr1_3_0" index="0" speed="10.36" length="24.51" shape="623.40,638.60 624.35,631.95 627.20,627.20 631.95,624.35 638.60,623.40"/>
    </edge>
    <edge id=":nr1_4" function="internal">
        <lane id=":nr1_4_0" index="0" speed="6.51" length="9.03" shape="638.60,633.00 636.15,633.35 634.40,634.40 633.35,636.15 633.00,638.60"/>
    </edge>
    <edge id=":nr1_5" function="internal">
        <lane id=":nr1_5_0" index="0" speed="20.00" length="27.20" shape="638.60,633.00 611.40,633.00"/>
        <lane id=":nr1_5_1" index="1" speed="20.00" length="27.20" shape="638.60,629.80 611.40,629.80"/>
    </edge>
    <edge id=":nr1_7" function="internal">
        <lane id=":nr1_7_0" index="0" speed="10.36" length="24.51" shape="638.60,626.60 631.95,625.65 627.20,622.80 624.35,618.05 623.40,611.40"/>
    </edge>
    <edge id=":nr1_8" function="internal">
        <lane id=":nr1_8_0" index="0" speed="6.51" length="9.03" shape="633.00,611.40 633.35,613.85 634.40,615.60 636.15,616.65 638.60,617.00"/>
    </edge>
    <edge id=":nr1_9" function="internal">
        <lane id=":nr1_9_0" index="0" speed="20.00" length="27.20" shape="633.00,611.40 633.00,638.60"/>
        <lane id=":nr1_9_1" index="1" speed="20.00" length="27.20" shape="629.80,611.40 629.80,638.60"/>
    </edge>
    <edge id=":nr1_11" function="internal">
        <lane id=":nr1_11_0" index="0" speed="10.36" length="24.51" shape="626.60,611.40 625.65,618.05 622.80,622.80 618.05,625.65 611.40,626.60"/>
    </edge>
    <edge id=":nr1_12" function="internal">
        <lane id=":nr1_12_0" index="0" speed="6.51" length="9.03" shape="611.40,617.00 613.85,616.65 615.60,615.60 616.65,613.85 617.00,611.40"/>
    </edge>
    <edge id=":nr1_13" function="internal">
        <lane id=":nr1_13_0" index="0" speed="20.00" length="27.20" shape="611.40,617.00 638.60,617.00"/>
        <lane id=":nr1_13_1" index="1" speed="20.00" length="27.20" shape="611.40,620.20 638.60,620.20"/>
    </edge>
    <edge id=":nr1_15" function="internal">
        <lane id=":nr1_15_0" index="0" speed="10.36" length="24.51" shape="611.40,623.40 618.05,624.35 622.80,627.20 625.65,631.95 626.60,638.60"/>
    </edge>
    <edge id=":nr10_0" function="internal">
        <lane id=":nr10_0_0" index="0" speed="3.65" length="4.67" shape="925.00,623.40 926.20,624.20 926.60,625.00 926.20,625.80 925.00,626.60"/>
    </edge>
    <edge id=":nr11_0" function="internal">
        <lane id=":nr11_0_0" index="0" speed="3.65" length="4.67" shape="626.60,925.00 625.80,926.20 625.00,926.60 624.20,926.20 623.40,925.00"/>
    </edge>
    <edge id=":nr2_0" function="internal">
        <lane id=":nr2_0_0" index="0" speed="6.51" length="9.03" shape="617.00,338.60 616.65,336.15 615.60,334.40 613.85,333.35 611.40,333.00"/>
    </edge>
    <edge id=":nr2_1" function="internal">
        <lane id=":nr2_1_0" index="0" speed="20.00" length="27.20" shape="617.00,338.60 617.00,311.40"/>
        <lane id=":nr2_1_1" index="1" speed="20.00" length="27.20" shape="620.20,338.60 620.20,311.40"/>
    </edge>
    <edge id=":nr2_3" function="internal">
        <lane id=":nr2_3_0" index="0" speed="10.36" length="24.51" shape="623.40,338.60 624.35,331.95 627.20,327.20 631.95,324.35 638.60,323.40"/>
    </edge>
    <edge id=":nr2_4" function="internal">
        <lane id=":nr2_4_0" index="0" speed="6.51" length="9.03" shape="638.60,333.00 636.15,333.35 634.40,334.40 633.35,336.15 633.00,338.60"/>
    </edge>
    <edge id=":nr2_5" function="internal">
        <lane id=":nr2_5_0" index="0" speed="20.00" length="27.20" shape="638.60,333.00 611.40,333.00"/>
        <lane id=":nr2_5_1" index="1" speed="20.00" length="27.20" shape="638.60,329.80 611.40,329.80"/>
    </edge>
    <edge id=":nr2_7" function="internal">
        <lane id=":nr2_7_0" index="0" speed="10.36" length="24.51" shape="638.60,326.60 631.95,325.65 627.20,322.80 624.35,318.05 623.40,311.40"/>
    </edge>
    <edge id=":nr2_8" function="internal">
        <lane id=":nr2_8_0" index="0" speed="6.51" length="9.03" shape="633.00,311.40 633.35,313.85 634.40,315.60 636.15,316.65 638.60,317.00"/>
    </edge>
    <edge id=":nr2_9" function="internal">
        <lane id=":nr2_9_0" index="0" speed="20.00" length="27.20" shape="633.00,311.40 633.00,338.60"/>
        <lane id=":nr2_9_1" index="1" speed="20.00" length="27.20" shape="629.80,311.40 629.80,338.60"/>
    </edge>
    <edge id=":nr2_11" function="internal">
        <lane id=":nr2_11_0" index="0" speed="10.36" length="24.51" shape="626.60,311.40 625.65,318.05 622.80,322.80 618.05,325.65 611.40,326.60"/>
    </edge>
    <edge id=":nr2_12" function="internal">
        <lane id=":nr2_12_0" index="0" speed="6.51" length="9.03" shape="611.40,317.00 613.85,316.65 615.60,315.60 616.65,313.85 617.00,311.40"/>
    </edge>
    <edge id=":nr2_13" function="internal">
        <lane id=":nr2_13_0" index="0" speed="20.00" length="27.20" shape="611.40,317.00 638.60,317.00"/>
        <lane id=":nr2_13_1" index="1" speed="20.00" length="27.20" shape="611.40,320.20 638.60,320.20"/>
    </edge>
    <edge id=":nr2_15" function="internal">
        <lane id=":nr2_15_0" index="0" speed="10.36" length="24.51" shape="611.40,323.40 618.05,324.35 622.80,327.20 625.65,331.95 626.60,338.60"/>
    </edge>
    <edge id=":nr20_0" function="internal">
        <lane id=":nr20_0_0" index="0" speed="3.65" length="4.67" shape="925.00,323.40 926.20,324.20 926.60,325.00 926.20,325.80 925.00,326.60"/>
    </edge>
    <edge id=":nr3_0" function="internal">
        <lane id=":nr3_0_0" index="0" speed="6.51" length="9.03" shape="617.00,38.60 616.65,36.15 615.60,34.40 613.85,33.35 611.40,33.00"/>
    </edge>
    <edge id=":nr3_1" function="internal">
        <lane id=":nr3_1_0" index="0" speed="20.00" length="27.20" shape="617.00,38.60 617.00,11.40"/>
        <lane id=":nr3_1_1" index="1" speed="20.00" length="27.20" shape="620.20,38.60 620.20,11.40"/>
    </edge>
    <edge id=":nr3_3" function="internal">
        <lane id=":nr3_3_0" index="0" speed="10.36" length="24.51" shape="623.40,38.60 624.35,31.95 627.20,27.20 631.95,24.35 638.60,23.40"/>
    </edge>
    <edge id=":nr3_4" function="internal">
        <lane id=":nr3_4_0" index="0" speed="6.51" length="9.03" shape="638.60,33.00 636.15,33.35 634.40,34.40 633.35,36.15 633.00,38.60"/>
    </edge>
    <edge id=":nr3_5" function="internal">
        <lane id=":nr3_5_0" index="0" speed="20.00" length="27.20" shape="638.60,33.00 611.40,33.00"/>
        <lane id=":nr3_5_1" index="1" speed="20.00" length="27.20" shape="638.60,29.80 611.40,29.80"/>
    </edge>
    <edge id=":nr3_7" function="internal">
        <lane id=":nr3_7_0" index="0" speed="10.36" length="24.51" shape="638.60,26.60 631.95,25.65 627.20,22.80 624.35,18.05 623.40,11.40"/>
    </edge>
    <edge id=":nr3_8" function="internal">
        <lane id=":nr3_8_0" index="0" speed="6.51" length="9.03" shape="633.00,11.40 633.35,13.85 634.40,15.60 636.15,16.65 638.60,17.00"/>
    </edge>
    <edge id=":nr3_9" function="internal">
        <lane id=":nr3_9_0" index="0" speed="20.00" length="27.20" shape="633.00,11.40 633.00,38.60"/>
        <lane id=":nr3_9_1" index="1" speed="20.00" length="27.20" shape="629.80,11.40 629.80,38.60"/>
    </edge>
    <edge id=":nr3_11" function="internal">
        <lane id=":nr3_11_0" index="0" speed="10.36" length="24.51" shape="626.60,11.40 625.65,18.05 622.80,22.80 618.05,25.65 611.40,26.60"/>
    </edge>
    <edge id=":nr3_12" function="internal">
        <lane id=":nr3_12_0" index="0" speed="6.51" length="9.03" shape="611.40,17.00 613.85,16.65 615.60,15.60 616.65,13.85 617.00,11.40"/>
    </edge>
    <edge id=":nr3_13" function="internal">
        <lane id=":nr3_13_0" index="0" speed="20.00" length="27.20" shape="611.40,17.00 638.60,17.00"/>
        <lane id=":nr3_13_1" index="1" speed="20.00" length="27.20" shape="611.40,20.20 638.60,20.20"/>
    </edge>
    <edge id=":nr3_15" function="internal">
        <lane id=":nr3_15_0" index="0" speed="10.36" length="24.51" shape="611.40,23.40 618.05,24.35 622.80,27.20 625.65,31.95 626.60,38.60"/>
    </edge>
    <edge id=":nr30_0" function="internal">
        <lane id=":nr30_0_0" index="0" speed="3.65" length="4.67" shape="925.00,23.40 926.20,24.20 926.60,25.00 926.20,25.80 925.00,26.60"/>
    </edge>
    <edge id=":nr31_0" function="internal">
        <lane id=":nr31_0_0" index="0" speed="3.65" length="4.67" shape="623.40,-275.00 624.20,-276.20 625.00,-276.60 625.80,-276.20 626.60,-275.00"/>
    </edge>

    <edge id="nl10_nl1" from="nl10" to="nl1" priority="-1" type="a">
        <lane id="nl10_nl1_0" index="0" speed="20.00" length="311.40" shape="-300.00,617.00 11.40,617.00"/>
        <lane id="nl10_nl1_1" index="1" speed="20.00" length="311.40" shape="-300.00,620.20 11.40,620.20"/>
        <lane id="nl10_nl1_2" index="2" speed="20.00" length="311.40" shape="-300.00,623.40 11.40,623.40"/>
    </edge>
    <edge id="nl11_nl1" from="nl11" to="nl1" priority="-1" type="a">
        <lane id="nl11_nl1_0" index="0" speed="20.00" length="286.40" shape="17.00,925.00 17.00,638.60"/>
        <lane id="nl11_nl1_1" index="1" speed="20.00" length="286.40" shape="20.20,925.00 20.20,638.60"/>
        <lane id="nl11_nl1_2" index="2" speed="20.00" length="286.40" shape="23.40,925.00 23.40,638.60"/>
    </edge>
    <edge id="nl1_nl10" from="nl1" to="nl10" priority="-1" type="a">
        <lane id="nl1_nl10_0" index="0" speed="20.00" length="311.40" shape="11.40,633.00 -300.00,633.00"/>
        <lane id="nl1_nl10_1" index="1" speed="20.00" length="311.40" shape="11.40,629.80 -300.00,629.80"/>
        <lane id="nl1_nl10_2" index="2" speed="20.00" length="311.40" shape="11.40,626.60 -300.00,626.60"/>
    </edge>
    <edge id="nl1_nl11" from="nl1" to="nl11" priority="-1" type="a">
        <lane id="nl1_nl11_0" index="0" speed="20.00" length="286.40" shape="33.00,638.60 33.00,925.00"/>
        <lane id="nl1_nl11_1" index="1" speed="20.00" length="286.40" shape="29.80,638.60 29.80,925.00"/>
        <lane id="nl1_nl11_2" index="2" speed="20.00" length="286.40" shape="26.60,638.60 26.60,925.00"/>
    </edge>
    <edge id="nl1_nl2" from="nl1" to="nl2" priority="-1" type="a">
        <lane id="nl1_nl2_0" index="0" speed="20.00" length="272.80" shape="17.00,611.40 17.00,338.60"/>
        <lane id="nl1_nl2_1" index="1" speed="20.00" length="272.80" shape="20.20,611.40 20.20,338.60"/>