<connections>
  <connection from="nl10_nl1" to="nl1_nm1" fromLane="0" toLane="0"/>
  <connection from="nl1_nm1" to="nm1_nr1" fromLane="0" toLane="0"/>
  <connection from="nm1_nr1" to="nr1_nr10" fromLane="0" toLane="0"/>
  <connection from="nr10_nr1" to="nr1_nm1" fromLane="0" toLane="0"/>
  <connection from="nr1_nm1" to="nm1_nl1" fromLane="0" toLane="0"/>
  <connection from="nm1_nl1" to="nl1_nl10" fromLane="0" toLane="0"/>
  <connection from="nl20_nl2" to="nl2_nm2" fromLane="0" toLane="0"/>
  <connection from="nl2_nm2" to="nm2_nr2" fromLane="0" toLane="0"/>
  <connection from="nm2_nr2" to="nr2_nr20" fromLane="0" toLane="0"/>
  <connection from="nr20_nr2" to="nr2_nm2" fromLane="0" toLane="0"/>
  <connection from="nr2_nm2" to="nm2_nl2" fromLane="0" toLane="0"/>
  <connection from="nm2_nl2" to="nl2_nl20" fromLane="0" toLane="0"/>
  <connection from="nl30_nl3" to="nl3_nm3" fromLane="0" toLane="0"/>
  <connection from="nl3_nm3" to="nm3_nr3" fromLane="0" toLane="0"/>
  <connection from="nm3_nr3" to="nr3_nr30" fromLane="0" toLane="0"/>
  <connection from="nr30_nr3" to="nr3_nm3" fromLane="0" toLane="0"/>
  <connection from="nr3_nm3" to="nm3_nl3" fromLane="0" toLane="0"/>
  <connection from="nm3_nl3" to="nl3_nl30" fromLane="0" toLane="0"/>
  <connection from="nl11_nl1" to="nl1_nl2" fromLane="0" toLane="0"/>
  <connection from="nl1_nl2" to="nl2_nl3" fromLane="0" toLane="0"/>
  <connection from="nl2_nl3" to="nl3_nl31" fromLane="0" toLane="0"/>
  <connection from="nl31_nl3" to="nl3_nl2" fromLane="0" toLane="0"/>
  <connection from="nl3_nl2" to="nl2_nl1" fromLane="0" toLane="0"/>
  <connection from="nl2_nl1" to="nl1_nl11" fromLane="0" toLane="0"/>
  <connection from="nm11_nm1" to="nm1_nm2" fromLane="0" toLane="0"/>
  <connection from="nm1_nm2" to="nm2_nm3" fromLane="0" toLane="0"/>
  <connection from="nm2_nm3" to="nm3_nm31" fromLane="0" toLane="0"/>
  <connection from="nm31_nm3" to="nm3_nm2" fromLane="0" toLane="0"/>
  <connection from="nm3_nm2" to="nm2_nm1" fromLane="0" toLane="0"/>
  <connection from="nm2_nm1" to="nm1_nm11" fromLane="0" toLane="0"/>
  <connection from="nr11_nr1" to="nr1_nr2" fromLane="0" toLane="0"/>
  <connection from="nr1_nr2" to="nr2_nr3" fromLane="0" toLane="0"/>
  <connection from="nr2_nr3" to="nr3_nr31" fromLane="0" toLane="0"/>
  <connection from="nr31_nr3" to="nr3_nr2" fromLane="0" toLane="0"/>
  <connection from="nr3_nr2" to="nr2_nr1" fromLane="0" toLane="0"/>
  <connection from="nr2_nr1" to="nr1_nr11" fromLane="0" toLane="0"/>
</connections>
